Circuit: * C:\Users\Tedy_\Desktop\proiect scia\tot\Draft2.asc

Ignoring empty pin current: Ix(x3:s1)
Ignoring empty pin current: Ix(x3:s2)
Ignoring empty pin current: Ix(x3:s3)
Ignoring empty pin current: Ix(x3:s4)
Ignoring empty pin current: Ix(x3:s5)
Direct Newton iteration failed to find .op point.  (Use ".option noopiter" to skip.)
Starting Gmin stepping
Gmin = 10
Gmin = 1.07374
Gmin = 0.115292
Gmin = 0.0123794
Gmin = 0.00132923
Gmin = 0.000142725
Gmin = 1.5325e-05
Gmin = 1.6455e-06
Gmin = 1.76685e-07
Gmin = 1.89714e-08
Gmin = 2.03704e-09
Gmin = 2.18725e-10
Gmin = 2.34854e-11
Gmin = 2.52173e-12
Gmin = 2.70769e-13
Gmin = 0
Gmin stepping succeeded in finding the operating point.


Date: Wed Jan 17 21:13:45 2024
Total elapsed time: 0.276 seconds.

tnom = 27
temp = 27
method = trap
totiter = 6862
traniter = 0
tranpoints = 0
accept = 0
rejected = 0
matrix size = 177
fillins = 114
solver = Normal
Avg thread counts: 1.9/0.0/2.8/1.9
Matrix Compiler1:     780 opcodes  2.6/1.8/[1.4]
Matrix Compiler2: 16.48 KB object code size  2.2/2.1/[1.3]

