Circuit: * C:\Users\Tedy_\Desktop\proiect scia\etaje\redresor.asc

Direct Newton iteration failed to find .op point.  (Use ".option noopiter" to skip.)
Starting Gmin stepping
Gmin = 10
Gmin = 1.07374
Gmin = 0.115292
Gmin = 0.0123794
Gmin = 0.00132923
Gmin = 0.000142725
Gmin = 1.5325e-05
Gmin = 1.6455e-06
Gmin = 1.76685e-07
Gmin = 1.89714e-08
Gmin = 2.03704e-09
Gmin = 2.18725e-10
Gmin = 2.34854e-11
Gmin = 2.52173e-12
Gmin = 2.70769e-13
Gmin = 0
Gmin stepping succeeded in finding the operating point.

.fourier quantity "V(outd)" not pressent in data.


Date: Thu Jan 18 11:19:24 2024
Total elapsed time: 0.665 seconds.

tnom = 27
temp = 27
method = modified trap
totiter = 14713
traniter = 13946
tranpoints = 4062
accept = 3121
rejected = 941
matrix size = 131
fillins = 83
solver = Normal
Avg thread counts: 1.4/2.5/2.0/1.4
Matrix Compiler1: 9.29 KB object code size  5.3/3.7/[2.4]
Matrix Compiler2: 11.58 KB object code size  1.8/2.5/[1.1]

